@<TRIPOS>MOLECULE

30 29 1
SMALL
USER_CHARGES
@<TRIPOS>ATOM
1	N1    -0.1369     0.0468     0.1815	N 	1	noname	-0.3170
2	C1     1.3367     0.0949     0.0577	C	1	noname	0.0237
3	C2     1.9205    -1.3437     0.0435	C	1	noname	0.0950
4	C3     3.4793    -1.4157    -0.0410	C	1	noname	0.1097
5	C4     4.1081    -0.7875    -1.3294	C	1	noname	0.1106
6	C5     5.6700    -0.7919    -1.3580	C	1	noname	0.1056
7	C6    -0.8040     1.3617     0.1242	C	1	noname	-0.0163
8	O1     1.4868    -1.9999     1.2355	O	1	noname	-0.3889
9	O2     3.8589    -2.7918     0.0467	O	1	noname	-0.3874
10	O3     3.6141    -1.4701    -2.4839	O	1	noname	-0.3874
11	C7     6.2688    -0.0347    -2.5717	C	1	noname	0.0718
12	O4     5.9670    -0.6886    -3.8012	O	1	noname	-0.3934
13	O5     6.1969    -0.1782    -0.1809	O	1	noname	-0.3878
14	H1    -0.6479    -0.8168     0.2962	H	1	noname	0.1219
15	H2     1.5377     0.5392    -0.9172	H	1	noname	0.0455
16	H3     1.6943     0.5842     0.9637	H	1	noname	0.0455
17	H4     1.5090    -1.8837    -0.8092	H	1	noname	0.0642
18	H5     3.9028    -0.8955     0.8181	H	1	noname	0.0656
19	H6     3.7640     0.2434    -1.4119	H	1	noname	0.0657
20	H7     5.9996    -1.8309    -1.3518	H	1	noname	0.0652
21	H8    -0.9863     1.7210     1.1370	H	1	noname	0.0391
22	H9    -0.1655     2.0704    -0.4033	H	1	noname	0.0391
23	H10    -1.7529     1.2650    -0.4033	H	1	noname	0.0391
24	H11     1.5318    -2.9508     1.1118	H	1	noname	0.2106
25	H12     3.9291    -3.0462     0.9697	H	1	noname	0.2106
26	H13     3.6736    -2.4182    -2.3449	H	1	noname	0.2106
27	H14     5.7691     0.9315    -2.6415	H	1	noname	0.0591
28	H15     7.3548    -0.0821    -2.4917	H	1	noname	0.0591
29	H16     5.9983    -1.6396    -3.6740	H	1	noname	0.2101
30	H17     6.4738    -0.8579     0.4378	H	1	noname	0.2106
@<TRIPOS>BOND
1	3	4	1
2	4	9	1
3	1	2	1
4	5	10	1
5	4	5	1
6	6	11	1
7	11	12	1
8	5	6	1
9	6	13	1
10	2	3	1
11	1	7	1
12	3	8	1
13	1	14	1
14	2	15	1
15	2	16	1
16	3	17	1
17	4	18	1
18	5	19	1
19	6	20	1
20	7	21	1
21	7	22	1
22	7	23	1
23	8	24	1
24	9	25	1
25	10	26	1
26	11	27	1
27	11	28	1
28	12	29	1
29	13	30	1
@<TRIPOS>SUBSTRUCTURE
1	noname	1
