@<TRIPOS>MOLECULE

19 18 1
SMALL
USER_CHARGES
@<TRIPOS>ATOM
1	C1     2.9656    -0.7748     0.1474	C	1	noname	-0.0532
2	C2     0.6001    -0.4304     1.0573	C	1	noname	-0.0532
3	C3     1.0316    -0.3170    -1.4491	C	1	noname	-0.0532
4	C4     1.6231    -0.0014    -0.0394	C	1	noname	0.0202
5	C5     2.6230     2.1877     1.7026	C	1	noname	-0.0052
6	O1     3.0131     2.1824    -0.9927	O	1	noname	-0.3153
7	S1     1.8710     1.8254     0.0741	S	1	noname	0.1509
8	H1     3.1716    -0.8935     1.2112	H	1	noname	0.0240
9	H2     2.8872    -1.7568    -0.3192	H	1	noname	0.0240
10	H3     3.7758    -0.2145    -0.3192	H	1	noname	0.0240
11	H4     1.0281    -0.2509     2.0436	H	1	noname	0.0240
12	H5    -0.3155     0.1507     0.9474	H	1	noname	0.0240
13	H6     0.3728    -1.4908     0.9474	H	1	noname	0.0240
14	H7     0.9743    -1.3969    -1.5856	H	1	noname	0.0240
15	H8     0.0330     0.1127    -1.5286	H	1	noname	0.0240
16	H9     1.6743     0.1127    -2.2174	H	1	noname	0.0240
17	H10     2.8576     1.2523     2.2106	H	1	noname	0.0310
18	H11     3.5377     2.7633     1.5605	H	1	noname	0.0310
19	H12     1.9217     2.7633     2.3067	H	1	noname	0.0310
@<TRIPOS>BOND
1	4	1	1
2	4	2	1
3	4	3	1
4	7	4	1
5	7	5	1
6	7	6	2
7	1	8	1
8	1	9	1
9	1	10	1
10	2	11	1
11	2	12	1
12	2	13	1
13	3	14	1
14	3	15	1
15	3	16	1
16	5	17	1
17	5	18	1
18	5	19	1
@<TRIPOS>SUBSTRUCTURE
1	noname	1
